Global frequency set at 1000000000000 ticks per second
src/mem/dram_interface.cc:690: warn: DRAM device capacity (16384 Mbytes) does not match the address range assigned (1024 Mbytes)
src/mem/dram_interface.cc:690: warn: DRAM device capacity (16384 Mbytes) does not match the address range assigned (1024 Mbytes)
src/sim/kernel_workload.cc:46: info: kernel located at: /home/mcallisl/.cache/gem5/arm64-linux-kernel-5.4.49
src/base/loader/symtab.cc:95: warn: Cannot insert a new symbol table due to name collisions. Adding prefix to each symbol's name can resolve this issue.
src/base/statistics.hh:279: warn: One of the stats is a legacy stat. Legacy stat is a stat that does not belong to any statistics::Group. Legacy stat is deprecated.
src/base/statistics.hh:279: warn: One of the stats is a legacy stat. Legacy stat is a stat that does not belong to any statistics::Group. Legacy stat is deprecated.
src/base/vnc/vncserver.cc:163: warn: Sockets disabled, not accepting vnc client connections
src/dev/serial/terminal.cc:174: warn: Sockets disabled, not accepting terminal connections
src/base/remote_gdb.cc:418: warn: Sockets disabled, not accepting gdb connections
src/arch/arm/fs_workload.cc:121: info: Using bootloader at address 0x10
src/arch/arm/fs_workload.cc:139: info: Using kernel entry physical address at 0x80080000
src/arch/arm/linux/fs_workload.cc:111: info: Loading DTB file: m5out/device.dtb at address 0x88000000
src/dev/arm/energy_ctrl.cc:252: warn: Existing EnergyCtrl, but no enabled DVFSHandler found.
gem5 Simulator System.  https://www.gem5.org
gem5 is copyrighted software; use the --copyright option for details.

gem5 version 24.1.0.2
gem5 compiled Apr  8 2025 17:46:57
gem5 started May  5 2025 14:46:00
gem5 executing on turing301, pid 255986
command line: /home/mcallisl/gem5/build/ALL/gem5.opt /home/mcallisl/config_scripts/run_script.py --isa ARM --cpu O3 --mem 2GiB --cache 32KiB:256KiB --cores 4 --workload boot-exit

info: Standard input is not a terminal, disabling listeners.
test1
info: Using default config
src/sim/simulate.cc:199: info: Entering event queue @ 0.  Starting simulation...
src/mem/ruby/system/Sequencer.cc:704: warn: Replacement policy updates recently became the responsibility of SLICC state machines. Make sure to setMRU() near callbacks in .sm files!
src/dev/arm/gic_v3_distributor.cc:884: warn: Gicv3Distributor::write(): setting ARE_NS to 0 is not supported!
src/dev/arm/gic_v3_distributor.cc:889: warn: Gicv3Distributor::write(): setting ARE_S to 0 is not supported!
src/dev/arm/rv_ctrl.cc:176: warn: SCReg: Access to unknown device dcc0:site0:pos0:fn7:dev0
src/mem/ruby/system/RubyPort.cc:264: warn: Cache maintenance operations are not supported in Ruby.
src/dev/arm/gic_v3_distributor.cc:913: warn: Gicv3Distributor::write(): setting ARE_NS to 0 is not supported!
src/arch/arm/insts/pseudo.cc:174: warn: 	instruction 'csdb' unimplemented
src/dev/arm/rv_ctrl.cc:122: warn: Tried to read RealView I/O at offset 0x60 that doesn't exist
src/dev/arm/rv_ctrl.cc:122: warn: Tried to read RealView I/O at offset 0x48 that doesn't exist
src/dev/arm/rv_ctrl.cc:198: warn: Tried to write RVIO at offset 0xa8 (data 0) that doesn't exist
src/dev/arm/rv_ctrl.cc:198: warn: Tried to write RVIO at offset 0xa8 (data 0) that doesn't exist
src/dev/arm/rv_ctrl.cc:198: warn: Tried to write RVIO at offset 0xa8 (data 0) that doesn't exist
src/dev/arm/rv_ctrl.cc:198: warn: Tried to write RVIO at offset 0xa8 (data 0) that doesn't exist
src/dev/arm/rv_ctrl.cc:198: warn: Tried to write RVIO at offset 0xa8 (data 0) that doesn't exist
src/dev/arm/rv_ctrl.cc:198: warn: Tried to write RVIO at offset 0xa8 (data 0) that doesn't exist
src/dev/arm/rv_ctrl.cc:198: warn: Tried to write RVIO at offset 0xa8 (data 0) that doesn't exist
src/dev/arm/rv_ctrl.cc:198: warn: Tried to write RVIO at offset 0xa8 (data 0) that doesn't exist
src/dev/arm/rv_ctrl.cc:198: warn: Tried to write RVIO at offset 0xa8 (data 0) that doesn't exist
src/dev/arm/rv_ctrl.cc:198: warn: Tried to write RVIO at offset 0xa8 (data 0) that doesn't exist
src/arch/arm/insts/pseudo.cc:174: warn: 	instruction 'csdb' unimplemented
src/dev/arm/rv_ctrl.cc:122: warn: Tried to read RealView I/O at offset 0x8 that doesn't exist
src/dev/arm/rv_ctrl.cc:122: warn: Tried to read RealView I/O at offset 0x48 that doesn't exist
src/arch/arm/insts/pseudo.cc:174: warn: 	instruction 'bti' unimplemented
src/arch/arm/insts/pseudo.cc:174: warn: 	instruction 'bti' unimplemented
src/arch/arm/insts/pseudo.cc:174: warn: 	instruction 'bti' unimplemented
src/arch/arm/insts/pseudo.cc:174: warn: 	instruction 'bti' unimplemented
src/arch/arm/insts/pseudo.cc:174: warn: 	instruction 'csdb' unimplemented
src/arch/arm/insts/pseudo.cc:174: warn: 	instruction 'bti' unimplemented
src/arch/arm/insts/pseudo.cc:174: warn: 	instruction 'bti' unimplemented
src/arch/arm/insts/pseudo.cc:174: warn: 	instruction 'csdb' unimplemented
src/arch/arm/insts/pseudo.cc:174: warn: 	instruction 'bti' unimplemented
first exit event: kernel booted
2025-05-05-15-23-49
ps: 
success
    PID PSR COMMAND
 255986   3 gem5.opt

success
Name:	gem5.opt
Umask:	0022
State:	S (sleeping)
Tgid:	255986
Ngid:	0
Pid:	255986
PPid:	255984
TracerPid:	0
Uid:	1003	1003	1003	1003
Gid:	100	100	100	100
FDSize:	64
Groups:	10 100 979 
NStgid:	255986
NSpid:	255986
NSpgid:	254410
NSsid:	253425
VmPeak:	 3697320 kB
VmSize:	 3697320 kB
VmLck:	       0 kB
VmPin:	       0 kB
VmHWM:	  960656 kB
VmRSS:	  960656 kB
RssAnon:	  889936 kB
RssFile:	   70720 kB
RssShmem:	       0 kB
VmData:	 3191800 kB
VmStk:	     132 kB
VmExe:	   61316 kB
VmLib:	   13356 kB
VmPTE:	    2060 kB
VmSwap:	       0 kB
HugetlbPages:	       0 kB
CoreDumping:	0
THP_enabled:	1
untag_mask:	0xffffffffffffffff
Threads:	1
SigQ:	0/512669
SigPnd:	0000000000000000
ShdPnd:	0000000000000000
SigBlk:	0000000008000000
SigIgn:	0000000001001085
SigCgt:	0000000010000e22
CapInh:	0000000000000000
CapPrm:	0000000000000000
CapEff:	0000000000000000
CapBnd:	000001ffffffffff
CapAmb:	0000000000000000
NoNewPrivs:	0
Seccomp:	0
Seccomp_filters:	0
Speculation_Store_Bypass:	vulnerable
SpeculationIndirectBranch:	always enabled
Cpus_allowed:	00,3fe003fe
Cpus_allowed_list:	1-9,21-29
Mems_allowed:	00000000,00000000,00000000,00000000,00000000,00000000,00000000,00000000,00000000,00000000,00000000,00000000,00000000,00000000,00000000,00000000,00000000,00000000,00000000,00000000,00000000,00000000,00000000,00000000,00000000,00000000,00000000,00000000,00000000,00000000,00000000,00000003
Mems_allowed_list:	0-1
voluntary_ctxt_switches:	1556
nonvoluntary_ctxt_switches:	2670

src/sim/simulate.cc:199: info: Entering event queue @ 364674239721.  Starting simulation...
src/arch/arm/insts/pseudo.cc:174: warn: 	instruction 'bti' unimplemented
second exit event: in after boot
2025-05-05-16-03-42
ps: 
success
    PID PSR COMMAND
 255986   3 gem5.opt

success
Name:	gem5.opt
Umask:	0022
State:	S (sleeping)
Tgid:	255986
Ngid:	0
Pid:	255986
PPid:	255984
TracerPid:	0
Uid:	1003	1003	1003	1003
Gid:	100	100	100	100
FDSize:	64
Groups:	10 100 979 
NStgid:	255986
NSpid:	255986
NSpgid:	254410
NSsid:	253425
VmPeak:	 3855016 kB
VmSize:	 3855016 kB
VmLck:	       0 kB
VmPin:	       0 kB
VmHWM:	 1136352 kB
VmRSS:	 1136352 kB
RssAnon:	 1064672 kB
RssFile:	   71680 kB
RssShmem:	       0 kB
VmData:	 3349496 kB
VmStk:	     132 kB
VmExe:	   61316 kB
VmLib:	   13356 kB
VmPTE:	    2392 kB
VmSwap:	       0 kB
HugetlbPages:	       0 kB
CoreDumping:	0
THP_enabled:	1
untag_mask:	0xffffffffffffffff
Threads:	1
SigQ:	0/512669
SigPnd:	0000000000000000
ShdPnd:	0000000000000000
SigBlk:	0000000008000000
SigIgn:	0000000001001085
SigCgt:	0000000010000e22
CapInh:	0000000000000000
CapPrm:	0000000000000000
CapEff:	0000000000000000
CapBnd:	000001ffffffffff
CapAmb:	0000000000000000
NoNewPrivs:	0
Seccomp:	0
Seccomp_filters:	0
Speculation_Store_Bypass:	vulnerable
SpeculationIndirectBranch:	always enabled
Cpus_allowed:	00,3fe003fe
Cpus_allowed_list:	1-9,21-29
Mems_allowed:	00000000,00000000,00000000,00000000,00000000,00000000,00000000,00000000,00000000,00000000,00000000,00000000,00000000,00000000,00000000,00000000,00000000,00000000,00000000,00000000,00000000,00000000,00000000,00000000,00000000,00000000,00000000,00000000,00000000,00000000,00000000,00000003
Mems_allowed_list:	0-1
voluntary_ctxt_switches:	1637
nonvoluntary_ctxt_switches:	5841

src/sim/simulate.cc:199: info: Entering event queue @ 493063098012.  Starting simulation...
third exit event: after run script
2025-05-05-16-06-23
ps: 
success
    PID PSR COMMAND
 255986   3 gem5.opt

success
Name:	gem5.opt
Umask:	0022
State:	S (sleeping)
Tgid:	255986
Ngid:	0
Pid:	255986
PPid:	255984
TracerPid:	0
Uid:	1003	1003	1003	1003
Gid:	100	100	100	100
FDSize:	64
Groups:	10 100 979 
NStgid:	255986
NSpid:	255986
NSpgid:	254410
NSsid:	253425
VmPeak:	 3861160 kB
VmSize:	 3861160 kB
VmLck:	       0 kB
VmPin:	       0 kB
VmHWM:	 1142432 kB
VmRSS:	 1142432 kB
RssAnon:	 1070752 kB
RssFile:	   71680 kB
RssShmem:	       0 kB
VmData:	 3355640 kB
VmStk:	     132 kB
VmExe:	   61316 kB
VmLib:	   13356 kB
VmPTE:	    2404 kB
VmSwap:	       0 kB
HugetlbPages:	       0 kB
CoreDumping:	0
THP_enabled:	1
untag_mask:	0xffffffffffffffff
Threads:	1
SigQ:	1/512669
SigPnd:	0000000000000000
ShdPnd:	0000000000000000
SigBlk:	0000000008000000
SigIgn:	0000000001001085
SigCgt:	0000000010000e22
CapInh:	0000000000000000
CapPrm:	0000000000000000
CapEff:	0000000000000000
CapBnd:	000001ffffffffff
CapAmb:	0000000000000000
NoNewPrivs:	0
Seccomp:	0
Seccomp_filters:	0
Speculation_Store_Bypass:	vulnerable
SpeculationIndirectBranch:	always enabled
Cpus_allowed:	00,3fe003fe
Cpus_allowed_list:	1-9,21-29
Mems_allowed:	00000000,00000000,00000000,00000000,00000000,00000000,00000000,00000000,00000000,00000000,00000000,00000000,00000000,00000000,00000000,00000000,00000000,00000000,00000000,00000000,00000000,00000000,00000000,00000000,00000000,00000000,00000000,00000000,00000000,00000000,00000000,00000003
Mems_allowed_list:	0-1
voluntary_ctxt_switches:	1642
nonvoluntary_ctxt_switches:	6040


 Performance counter stats for '/home/mcallisl/gem5/build/ALL/gem5.opt /home/mcallisl/config_scripts/run_script.py --isa ARM --cpu O3 --mem 2GiB --cache 32KiB:256KiB --cores 4 --workload boot-exit':

   475,580,831,845      CPU_CLK_UNHALTED.REF_XCLK        #     51.4 %  tma_frontend_bound     
                                                  #      5.5 %  tma_bad_speculation    
                                                  #     29.4 %  tma_retiring           
                                                  #     13.7 %  tma_backend_bound        (62.50%)
 1,505,441,490,591      IDQ.MS_UOPS                                                             (62.50%)
33,215,893,744,672      IDQ_UOPS_NOT_DELIVERED.CORE                                             (50.00%)
   358,672,133,495      INT_MISC.RECOVERY_CYCLES_ANY                                            (50.00%)
   475,137,909,623      CPU_CLK_UNHALTED.ONE_THREAD_ACTIVE                                        (50.00%)
16,150,557,902,201      CPU_CLK_UNHALTED.THREAD                                                 (62.50%)
18,964,535,962,202      UOPS_RETIRED.RETIRE_SLOTS                                               (62.50%)
21,820,072,835,659      UOPS_ISSUED.ANY                                                         (62.50%)

    4825.940357437 seconds time elapsed

    4734.168206000 seconds user
       2.294781000 seconds sys


