Global frequency set at 1000000000000 ticks per second
warn: board.workload.acpi_description_table_pointer.rsdt adopting orphan SimObject param 'entries'
src/mem/dram_interface.cc:690: warn: DRAM device capacity (16384 Mbytes) does not match the address range assigned (1024 Mbytes)
src/mem/dram_interface.cc:690: warn: DRAM device capacity (16384 Mbytes) does not match the address range assigned (1024 Mbytes)
src/sim/kernel_workload.cc:46: info: kernel located at: /home/mcallisl/.cache/gem5/x86-linux-kernel-4.19.83
src/base/statistics.hh:279: warn: One of the stats is a legacy stat. Legacy stat is a stat that does not belong to any statistics::Group. Legacy stat is deprecated.
      0: board.pc.south_bridge.cmos.rtc: Real-time clock set to Sun Jan  1 00:00:00 2012
src/dev/serial/terminal.cc:174: warn: Sockets disabled, not accepting terminal connections
src/base/statistics.hh:279: warn: One of the stats is a legacy stat. Legacy stat is a stat that does not belong to any statistics::Group. Legacy stat is deprecated.
src/dev/intel_8254_timer.cc:128: warn: Reading current count from inactive timer.
src/base/remote_gdb.cc:418: warn: Sockets disabled, not accepting gdb connections
gem5 Simulator System.  https://www.gem5.org
gem5 is copyrighted software; use the --copyright option for details.

gem5 version 24.1.0.2
gem5 compiled Apr  8 2025 17:46:57
gem5 started Apr 24 2025 23:12:34
gem5 executing on turing301, pid 185219
command line: /home/mcallisl/gem5/build/ALL/gem5.opt /home/mcallisl/config_scripts/run_script.py --isa X86 --cpu O3 --mem 2GiB --cache 32KiB:256KiB --cores 4 --workload blackscholes

info: Standard input is not a terminal, disabling listeners.
test2
info: Using default config
src/sim/simulate.cc:199: info: Entering event queue @ 0.  Starting simulation...
src/mem/ruby/system/Sequencer.cc:704: warn: Replacement policy updates recently became the responsibility of SLICC state machines. Make sure to setMRU() near callbacks in .sm files!
build/ALL/arch/x86/generated/exec-ns.cc.inc:27: warn: instruction 'fninit' unimplemented
build/ALL/arch/x86/generated/exec-ns.cc.inc:27: warn: instruction 'wbinvd' unimplemented
build/ALL/arch/x86/generated/exec-ns.cc.inc:27: warn: instruction 'sgdt_Ms' unimplemented
src/cpu/o3/fetch.cc:603: warn: Address 0xffffffc0 is outside of physical memory, stopping fetch
src/cpu/o3/fetch.cc:603: warn: Address 0xffffffc0 is outside of physical memory, stopping fetch
build/ALL/arch/x86/generated/exec-ns.cc.inc:27: warn: instruction 'wbinvd' unimplemented
build/ALL/arch/x86/generated/exec-ns.cc.inc:27: warn: instruction 'sgdt_Ms' unimplemented
build/ALL/arch/x86/generated/exec-ns.cc.inc:27: warn: instruction 'fninit' unimplemented
src/arch/x86/interrupts.cc:530: hack: Assuming logical destinations are 1 << id.
src/cpu/o3/fetch.cc:603: warn: Address 0xffffffc0 is outside of physical memory, stopping fetch
src/cpu/o3/fetch.cc:603: warn: Address 0xffffffc0 is outside of physical memory, stopping fetch
build/ALL/arch/x86/generated/exec-ns.cc.inc:27: warn: instruction 'wbinvd' unimplemented
build/ALL/arch/x86/generated/exec-ns.cc.inc:27: warn: instruction 'sgdt_Ms' unimplemented
build/ALL/arch/x86/generated/exec-ns.cc.inc:27: warn: instruction 'fninit' unimplemented
src/cpu/o3/fetch.cc:603: warn: Address 0xffffffc0 is outside of physical memory, stopping fetch
src/cpu/o3/fetch.cc:603: warn: Address 0xffffffc0 is outside of physical memory, stopping fetch
build/ALL/arch/x86/generated/exec-ns.cc.inc:27: warn: instruction 'wbinvd' unimplemented
build/ALL/arch/x86/generated/exec-ns.cc.inc:27: warn: instruction 'sgdt_Ms' unimplemented
build/ALL/arch/x86/generated/exec-ns.cc.inc:27: warn: instruction 'fninit' unimplemented
build/ALL/arch/x86/generated/exec-ns.cc.inc:27: warn: instruction 'wbinvd' unimplemented
build/ALL/arch/x86/generated/exec-ns.cc.inc:27: warn: instruction 'wbinvd' unimplemented
build/ALL/arch/x86/generated/exec-ns.cc.inc:27: warn: instruction 'wbinvd' unimplemented
src/dev/x86/pc.cc:117: warn: Don't know what interrupt to clear for console.
src/dev/x86/i8042.cc:290: warn: Write to unknown i8042 (keyboard controller) command port.
build/ALL/arch/x86/generated/exec-ns.cc.inc:27: warn: instruction 'verw_Mw_or_Rv' unimplemented
build/ALL/arch/x86/generated/exec-ns.cc.inc:27: warn: instruction 'verw_Mw_or_Rv' unimplemented
build/ALL/arch/x86/generated/exec-ns.cc.inc:27: warn: instruction 'verw_Mw_or_Rv' unimplemented
build/ALL/arch/x86/generated/exec-ns.cc.inc:27: warn: instruction 'verw_Mw_or_Rv' unimplemented
build/ALL/arch/x86/generated/exec-ns.cc.inc:27: warn: instruction 'verw_Mw_or_Rv' unimplemented
src/arch/generic/debugfaults.hh:145: warn: MOVNTDQ: Ignoring non-temporal hint, modeling as cacheable!
build/ALL/arch/x86/generated/exec-ns.cc.inc:27: warn: instruction 'verw_Mw_or_Rv' unimplemented
build/ALL/arch/x86/generated/exec-ns.cc.inc:27: warn: instruction 'verw_Mw_or_Rv' unimplemented
build/ALL/arch/x86/generated/exec-ns.cc.inc:27: warn: instruction 'verw_Mw_or_Rv' unimplemented
build/ALL/arch/x86/generated/exec-ns.cc.inc:27: warn: instruction 'verw_Mw_or_Rv' unimplemented
build/ALL/arch/x86/generated/exec-ns.cc.inc:27: warn: instruction 'verw_Mw_or_Rv' unimplemented
build/ALL/arch/x86/generated/exec-ns.cc.inc:27: warn: instruction 'verw_Mw_or_Rv' unimplemented
build/ALL/arch/x86/generated/exec-ns.cc.inc:27: warn: instruction 'verw_Mw_or_Rv' unimplemented
build/ALL/arch/x86/generated/exec-ns.cc.inc:27: warn: instruction 'fwait' unimplemented
build/ALL/arch/x86/generated/exec-ns.cc.inc:27: warn: instruction 'fwait' unimplemented
build/ALL/arch/x86/generated/exec-ns.cc.inc:27: warn: instruction 'fwait' unimplemented
build/ALL/arch/x86/generated/exec-ns.cc.inc:27: warn: instruction 'fwait' unimplemented
Done booting Linux
2025-04-25-15-43-23
src/sim/simulate.cc:199: info: Entering event queue @ 3950930982132.  Starting simulation...
end of benchmark
2025-04-25-16-09-34

 Performance counter stats for '/home/mcallisl/gem5/build/ALL/gem5.opt /home/mcallisl/config_scripts/run_script.py --isa X86 --cpu O3 --mem 2GiB --cache 32KiB:256KiB --cores 4 --workload blackscholes':

 6,057,398,866,790      CPU_CLK_UNHALTED.REF_XCLK        #     48.9 %  tma_frontend_bound     
                                                  #      5.9 %  tma_bad_speculation    
                                                  #     29.2 %  tma_retiring           
                                                  #     16.0 %  tma_backend_bound        (62.50%)
18,094,735,170,785      IDQ.MS_UOPS                                                             (62.50%)
402,086,289,320,560      IDQ_UOPS_NOT_DELIVERED.CORE                                             (50.00%)
 4,801,149,299,577      INT_MISC.RECOVERY_CYCLES_ANY                                            (50.00%)
 6,055,216,521,784      CPU_CLK_UNHALTED.ONE_THREAD_ACTIVE                                        (50.00%)
205,777,484,106,699      CPU_CLK_UNHALTED.THREAD                                                 (62.50%)
240,591,267,850,827      UOPS_RETIRED.RETIRE_SLOTS                                               (62.50%)
279,818,970,798,476      UOPS_ISSUED.ANY                                                         (62.50%)

   61022.698079082 seconds time elapsed

   60289.717611000 seconds user
      26.255186000 seconds sys


