Global frequency set at 1000000000000 ticks per second
src/mem/dram_interface.cc:690: warn: DRAM device capacity (16384 Mbytes) does not match the address range assigned (1024 Mbytes)
src/mem/dram_interface.cc:690: warn: DRAM device capacity (16384 Mbytes) does not match the address range assigned (1024 Mbytes)
src/sim/kernel_workload.cc:46: info: kernel located at: /home/mcallisl/.cache/gem5/arm64-linux-kernel-5.4.49
src/base/loader/symtab.cc:95: warn: Cannot insert a new symbol table due to name collisions. Adding prefix to each symbol's name can resolve this issue.
src/base/statistics.hh:279: warn: One of the stats is a legacy stat. Legacy stat is a stat that does not belong to any statistics::Group. Legacy stat is deprecated.
src/base/statistics.hh:279: warn: One of the stats is a legacy stat. Legacy stat is a stat that does not belong to any statistics::Group. Legacy stat is deprecated.
src/base/vnc/vncserver.cc:163: warn: Sockets disabled, not accepting vnc client connections
src/dev/serial/terminal.cc:174: warn: Sockets disabled, not accepting terminal connections
src/base/remote_gdb.cc:418: warn: Sockets disabled, not accepting gdb connections
src/arch/arm/fs_workload.cc:121: info: Using bootloader at address 0x10
src/arch/arm/fs_workload.cc:139: info: Using kernel entry physical address at 0x80080000
src/arch/arm/linux/fs_workload.cc:111: info: Loading DTB file: m5out/device.dtb at address 0x88000000
src/dev/arm/energy_ctrl.cc:252: warn: Existing EnergyCtrl, but no enabled DVFSHandler found.
gem5 Simulator System.  https://www.gem5.org
gem5 is copyrighted software; use the --copyright option for details.

gem5 version 24.1.0.2
gem5 compiled Apr  8 2025 17:46:57
gem5 started May  5 2025 18:57:50
gem5 executing on turing301, pid 256313
command line: /home/mcallisl/gem5/build/ALL/gem5.opt /home/mcallisl/config_scripts/run_script.py --isa ARM --cpu O3 --mem 2GiB --cache 32KiB:256KiB --cores 4 --workload boot-exit

info: Standard input is not a terminal, disabling listeners.
test1
info: Using default config
src/sim/simulate.cc:199: info: Entering event queue @ 0.  Starting simulation...
src/mem/ruby/system/Sequencer.cc:704: warn: Replacement policy updates recently became the responsibility of SLICC state machines. Make sure to setMRU() near callbacks in .sm files!
src/dev/arm/gic_v3_distributor.cc:884: warn: Gicv3Distributor::write(): setting ARE_NS to 0 is not supported!
src/dev/arm/gic_v3_distributor.cc:889: warn: Gicv3Distributor::write(): setting ARE_S to 0 is not supported!
src/dev/arm/rv_ctrl.cc:176: warn: SCReg: Access to unknown device dcc0:site0:pos0:fn7:dev0
src/mem/ruby/system/RubyPort.cc:264: warn: Cache maintenance operations are not supported in Ruby.
src/dev/arm/gic_v3_distributor.cc:913: warn: Gicv3Distributor::write(): setting ARE_NS to 0 is not supported!
src/arch/arm/insts/pseudo.cc:174: warn: 	instruction 'csdb' unimplemented
src/dev/arm/rv_ctrl.cc:122: warn: Tried to read RealView I/O at offset 0x60 that doesn't exist
src/dev/arm/rv_ctrl.cc:122: warn: Tried to read RealView I/O at offset 0x48 that doesn't exist
src/dev/arm/rv_ctrl.cc:198: warn: Tried to write RVIO at offset 0xa8 (data 0) that doesn't exist
src/dev/arm/rv_ctrl.cc:198: warn: Tried to write RVIO at offset 0xa8 (data 0) that doesn't exist
src/dev/arm/rv_ctrl.cc:198: warn: Tried to write RVIO at offset 0xa8 (data 0) that doesn't exist
src/dev/arm/rv_ctrl.cc:198: warn: Tried to write RVIO at offset 0xa8 (data 0) that doesn't exist
src/dev/arm/rv_ctrl.cc:198: warn: Tried to write RVIO at offset 0xa8 (data 0) that doesn't exist
src/dev/arm/rv_ctrl.cc:198: warn: Tried to write RVIO at offset 0xa8 (data 0) that doesn't exist
src/dev/arm/rv_ctrl.cc:198: warn: Tried to write RVIO at offset 0xa8 (data 0) that doesn't exist
src/dev/arm/rv_ctrl.cc:198: warn: Tried to write RVIO at offset 0xa8 (data 0) that doesn't exist
src/dev/arm/rv_ctrl.cc:198: warn: Tried to write RVIO at offset 0xa8 (data 0) that doesn't exist
src/dev/arm/rv_ctrl.cc:198: warn: Tried to write RVIO at offset 0xa8 (data 0) that doesn't exist
src/arch/arm/insts/pseudo.cc:174: warn: 	instruction 'csdb' unimplemented
src/dev/arm/rv_ctrl.cc:122: warn: Tried to read RealView I/O at offset 0x8 that doesn't exist
src/dev/arm/rv_ctrl.cc:122: warn: Tried to read RealView I/O at offset 0x48 that doesn't exist
src/arch/arm/insts/pseudo.cc:174: warn: 	instruction 'bti' unimplemented
src/arch/arm/insts/pseudo.cc:174: warn: 	instruction 'bti' unimplemented
src/arch/arm/insts/pseudo.cc:174: warn: 	instruction 'bti' unimplemented
src/arch/arm/insts/pseudo.cc:174: warn: 	instruction 'bti' unimplemented
src/arch/arm/insts/pseudo.cc:174: warn: 	instruction 'csdb' unimplemented
src/arch/arm/insts/pseudo.cc:174: warn: 	instruction 'bti' unimplemented
src/arch/arm/insts/pseudo.cc:174: warn: 	instruction 'bti' unimplemented
src/arch/arm/insts/pseudo.cc:174: warn: 	instruction 'csdb' unimplemented
src/arch/arm/insts/pseudo.cc:174: warn: 	instruction 'bti' unimplemented
first exit event: kernel booted
2025-05-05-19-33-26
ps: 
success
    PID PSR COMMAND
 256313  35 gem5.opt

success
Name:	gem5.opt
Umask:	0022
State:	S (sleeping)
Tgid:	256313
Ngid:	0
Pid:	256313
PPid:	256311
TracerPid:	0
Uid:	1003	1003	1003	1003
Gid:	100	100	100	100
FDSize:	64
Groups:	10 100 979 
NStgid:	256313
NSpid:	256313
NSpgid:	254410
NSsid:	253425
VmPeak:	 3699624 kB
VmSize:	 3699624 kB
VmLck:	       0 kB
VmPin:	       0 kB
VmHWM:	  967420 kB
VmRSS:	  967420 kB
RssAnon:	  897020 kB
RssFile:	   70400 kB
RssShmem:	       0 kB
VmData:	 3194104 kB
VmStk:	     132 kB
VmExe:	   61316 kB
VmLib:	   13356 kB
VmPTE:	    2060 kB
VmSwap:	       0 kB
HugetlbPages:	       0 kB
CoreDumping:	0
THP_enabled:	1
untag_mask:	0xffffffffffffffff
Threads:	1
SigQ:	0/512669
SigPnd:	0000000000000000
ShdPnd:	0000000000000000
SigBlk:	0000000008000000
SigIgn:	0000000001001085
SigCgt:	0000000010000e22
CapInh:	0000000000000000
CapPrm:	0000000000000000
CapEff:	0000000000000000
CapBnd:	000001ffffffffff
CapAmb:	0000000000000000
NoNewPrivs:	0
Seccomp:	0
Seccomp_filters:	0
Speculation_Store_Bypass:	vulnerable
SpeculationIndirectBranch:	always enabled
Cpus_allowed:	ff,800ff800
Cpus_allowed_list:	11-19,31-39
Mems_allowed:	00000000,00000000,00000000,00000000,00000000,00000000,00000000,00000000,00000000,00000000,00000000,00000000,00000000,00000000,00000000,00000000,00000000,00000000,00000000,00000000,00000000,00000000,00000000,00000000,00000000,00000000,00000000,00000000,00000000,00000000,00000000,00000003
Mems_allowed_list:	0-1
voluntary_ctxt_switches:	39085
nonvoluntary_ctxt_switches:	2567

src/sim/simulate.cc:199: info: Entering event queue @ 364674239721.  Starting simulation...
src/arch/arm/insts/pseudo.cc:174: warn: 	instruction 'bti' unimplemented
second exit event: in after boot
2025-05-05-20-11-40
ps: 
success
    PID PSR COMMAND
 256313  35 gem5.opt

success
Name:	gem5.opt
Umask:	0022
State:	S (sleeping)
Tgid:	256313
Ngid:	0
Pid:	256313
PPid:	256311
TracerPid:	0
Uid:	1003	1003	1003	1003
Gid:	100	100	100	100
FDSize:	64
Groups:	10 100 979 
NStgid:	256313
NSpid:	256313
NSpgid:	254410
NSsid:	253425
VmPeak:	 3857320 kB
VmSize:	 3857320 kB
VmLck:	       0 kB
VmPin:	       0 kB
VmHWM:	 1135004 kB
VmRSS:	 1135004 kB
RssAnon:	 1063964 kB
RssFile:	   71040 kB
RssShmem:	       0 kB
VmData:	 3351800 kB
VmStk:	     132 kB
VmExe:	   61316 kB
VmLib:	   13356 kB
VmPTE:	    2392 kB
VmSwap:	       0 kB
HugetlbPages:	       0 kB
CoreDumping:	0
THP_enabled:	1
untag_mask:	0xffffffffffffffff
Threads:	1
SigQ:	0/512669
SigPnd:	0000000000000000
ShdPnd:	0000000000000000
SigBlk:	0000000008000000
SigIgn:	0000000001001085
SigCgt:	0000000010000e22
CapInh:	0000000000000000
CapPrm:	0000000000000000
CapEff:	0000000000000000
CapBnd:	000001ffffffffff
CapAmb:	0000000000000000
NoNewPrivs:	0
Seccomp:	0
Seccomp_filters:	0
Speculation_Store_Bypass:	vulnerable
SpeculationIndirectBranch:	always enabled
Cpus_allowed:	ff,800ff800
Cpus_allowed_list:	11-19,31-39
Mems_allowed:	00000000,00000000,00000000,00000000,00000000,00000000,00000000,00000000,00000000,00000000,00000000,00000000,00000000,00000000,00000000,00000000,00000000,00000000,00000000,00000000,00000000,00000000,00000000,00000000,00000000,00000000,00000000,00000000,00000000,00000000,00000000,00000003
Mems_allowed_list:	0-1
voluntary_ctxt_switches:	39096
nonvoluntary_ctxt_switches:	5623

src/sim/simulate.cc:199: info: Entering event queue @ 493063098012.  Starting simulation...
third exit event: after run script
2025-05-05-20-14-14
ps: 
success
    PID PSR COMMAND
 256313  35 gem5.opt

success
Name:	gem5.opt
Umask:	0022
State:	S (sleeping)
Tgid:	256313
Ngid:	0
Pid:	256313
PPid:	256311
TracerPid:	0
Uid:	1003	1003	1003	1003
Gid:	100	100	100	100
FDSize:	64
Groups:	10 100 979 
NStgid:	256313
NSpid:	256313
NSpgid:	254410
NSsid:	253425
VmPeak:	 3863464 kB
VmSize:	 3863464 kB
VmLck:	       0 kB
VmPin:	       0 kB
VmHWM:	 1141724 kB
VmRSS:	 1141724 kB
RssAnon:	 1070684 kB
RssFile:	   71040 kB
RssShmem:	       0 kB
VmData:	 3357944 kB
VmStk:	     132 kB
VmExe:	   61316 kB
VmLib:	   13356 kB
VmPTE:	    2404 kB
VmSwap:	       0 kB
HugetlbPages:	       0 kB
CoreDumping:	0
THP_enabled:	1
untag_mask:	0xffffffffffffffff
Threads:	1
SigQ:	0/512669
SigPnd:	0000000000000000
ShdPnd:	0000000000000000
SigBlk:	0000000008000000
SigIgn:	0000000001001085
SigCgt:	0000000010000e22
CapInh:	0000000000000000
CapPrm:	0000000000000000
CapEff:	0000000000000000
CapBnd:	000001ffffffffff
CapAmb:	0000000000000000
NoNewPrivs:	0
Seccomp:	0
Seccomp_filters:	0
Speculation_Store_Bypass:	vulnerable
SpeculationIndirectBranch:	always enabled
Cpus_allowed:	ff,800ff800
Cpus_allowed_list:	11-19,31-39
Mems_allowed:	00000000,00000000,00000000,00000000,00000000,00000000,00000000,00000000,00000000,00000000,00000000,00000000,00000000,00000000,00000000,00000000,00000000,00000000,00000000,00000000,00000000,00000000,00000000,00000000,00000000,00000000,00000000,00000000,00000000,00000000,00000000,00000003
Mems_allowed_list:	0-1
voluntary_ctxt_switches:	39102
nonvoluntary_ctxt_switches:	5819


 Performance counter stats for '/home/mcallisl/gem5/build/ALL/gem5.opt /home/mcallisl/config_scripts/run_script.py --isa ARM --cpu O3 --mem 2GiB --cache 32KiB:256KiB --cores 4 --workload boot-exit':

18,514,636,047,371      INST_RETIRED.ANY                 #      5.8 %  tma_core_bound         
                                                  #      7.8 %  tma_memory_bound         (31.25%)
   389,307,775,903      RESOURCE_STALLS.SB                                                      (31.25%)
   453,095,206,392      CPU_CLK_UNHALTED.REF_XCLK                                               (31.25%)
30,688,035,863,779      IDQ_UOPS_NOT_DELIVERED.CORE                                             (31.25%)
 2,073,687,622,150      RS_EVENTS.EMPTY_CYCLES                                                  (31.25%)
   358,710,922,328      INT_MISC.RECOVERY_CYCLES_ANY                                            (25.00%)
 4,119,392,793,506      UOPS_EXECUTED.CYCLES_GE_3_UOPS_EXEC                                        (25.00%)
 9,586,618,097,865      UOPS_EXECUTED.CYCLES_GE_1_UOP_EXEC                                        (25.00%)
 6,786,911,002,256      UOPS_EXECUTED.CYCLES_GE_2_UOPS_EXEC                                        (25.00%)
   452,997,287,425      CPU_CLK_UNHALTED.ONE_THREAD_ACTIVE                                        (25.00%)
15,383,207,167,930      CPU_CLK_UNHALTED.THREAD                                                 (31.25%)
 3,573,506,042,279      CYCLE_ACTIVITY.STALLS_MEM_ANY                                           (31.25%)
18,961,112,056,259      UOPS_RETIRED.RETIRE_SLOTS                                               (31.25%)
 5,521,104,564,429      IDQ_UOPS_NOT_DELIVERED.CYCLES_0_UOPS_DELIV.CORE                                        (31.25%)
 5,803,383,050,563      CYCLE_ACTIVITY.STALLS_TOTAL                                             (31.25%)
21,793,719,179,369      UOPS_ISSUED.ANY                                                         (25.00%)

    4587.304489283 seconds time elapsed

    4511.660298000 seconds user
       3.244474000 seconds sys


