Global frequency set at 1000000000000 ticks per second
src/mem/dram_interface.cc:690: warn: DRAM device capacity (16384 Mbytes) does not match the address range assigned (1024 Mbytes)
src/mem/dram_interface.cc:690: warn: DRAM device capacity (16384 Mbytes) does not match the address range assigned (1024 Mbytes)
src/sim/kernel_workload.cc:46: info: kernel located at: /home/mcallisl/.cache/gem5/arm64-linux-kernel-5.4.49
src/base/loader/symtab.cc:95: warn: Cannot insert a new symbol table due to name collisions. Adding prefix to each symbol's name can resolve this issue.
src/base/statistics.hh:279: warn: One of the stats is a legacy stat. Legacy stat is a stat that does not belong to any statistics::Group. Legacy stat is deprecated.
src/base/statistics.hh:279: warn: One of the stats is a legacy stat. Legacy stat is a stat that does not belong to any statistics::Group. Legacy stat is deprecated.
src/base/vnc/vncserver.cc:163: warn: Sockets disabled, not accepting vnc client connections
src/dev/serial/terminal.cc:174: warn: Sockets disabled, not accepting terminal connections
src/base/remote_gdb.cc:418: warn: Sockets disabled, not accepting gdb connections
src/arch/arm/fs_workload.cc:121: info: Using bootloader at address 0x10
src/arch/arm/fs_workload.cc:139: info: Using kernel entry physical address at 0x80080000
src/arch/arm/linux/fs_workload.cc:111: info: Loading DTB file: m5out/device.dtb at address 0x88000000
src/dev/arm/energy_ctrl.cc:252: warn: Existing EnergyCtrl, but no enabled DVFSHandler found.
gem5 Simulator System.  https://www.gem5.org
gem5 is copyrighted software; use the --copyright option for details.

gem5 version 24.1.0.2
gem5 compiled Apr  8 2025 17:46:57
gem5 started May  5 2025 20:20:29
gem5 executing on turing301, pid 256473
command line: /home/mcallisl/gem5/build/ALL/gem5.opt /home/mcallisl/config_scripts/run_script.py --isa ARM --cpu O3 --mem 2GiB --cache 32KiB:256KiB --cores 4 --workload boot-exit

info: Standard input is not a terminal, disabling listeners.
test1
info: Using default config
src/sim/simulate.cc:199: info: Entering event queue @ 0.  Starting simulation...
src/mem/ruby/system/Sequencer.cc:704: warn: Replacement policy updates recently became the responsibility of SLICC state machines. Make sure to setMRU() near callbacks in .sm files!
src/dev/arm/gic_v3_distributor.cc:884: warn: Gicv3Distributor::write(): setting ARE_NS to 0 is not supported!
src/dev/arm/gic_v3_distributor.cc:889: warn: Gicv3Distributor::write(): setting ARE_S to 0 is not supported!
src/dev/arm/rv_ctrl.cc:176: warn: SCReg: Access to unknown device dcc0:site0:pos0:fn7:dev0
src/mem/ruby/system/RubyPort.cc:264: warn: Cache maintenance operations are not supported in Ruby.
src/dev/arm/gic_v3_distributor.cc:913: warn: Gicv3Distributor::write(): setting ARE_NS to 0 is not supported!
src/arch/arm/insts/pseudo.cc:174: warn: 	instruction 'csdb' unimplemented
src/dev/arm/rv_ctrl.cc:122: warn: Tried to read RealView I/O at offset 0x60 that doesn't exist
src/dev/arm/rv_ctrl.cc:122: warn: Tried to read RealView I/O at offset 0x48 that doesn't exist
src/dev/arm/rv_ctrl.cc:198: warn: Tried to write RVIO at offset 0xa8 (data 0) that doesn't exist
src/dev/arm/rv_ctrl.cc:198: warn: Tried to write RVIO at offset 0xa8 (data 0) that doesn't exist
src/dev/arm/rv_ctrl.cc:198: warn: Tried to write RVIO at offset 0xa8 (data 0) that doesn't exist
src/dev/arm/rv_ctrl.cc:198: warn: Tried to write RVIO at offset 0xa8 (data 0) that doesn't exist
src/dev/arm/rv_ctrl.cc:198: warn: Tried to write RVIO at offset 0xa8 (data 0) that doesn't exist
src/dev/arm/rv_ctrl.cc:198: warn: Tried to write RVIO at offset 0xa8 (data 0) that doesn't exist
src/dev/arm/rv_ctrl.cc:198: warn: Tried to write RVIO at offset 0xa8 (data 0) that doesn't exist
src/dev/arm/rv_ctrl.cc:198: warn: Tried to write RVIO at offset 0xa8 (data 0) that doesn't exist
src/dev/arm/rv_ctrl.cc:198: warn: Tried to write RVIO at offset 0xa8 (data 0) that doesn't exist
src/dev/arm/rv_ctrl.cc:198: warn: Tried to write RVIO at offset 0xa8 (data 0) that doesn't exist
src/arch/arm/insts/pseudo.cc:174: warn: 	instruction 'csdb' unimplemented
src/dev/arm/rv_ctrl.cc:122: warn: Tried to read RealView I/O at offset 0x8 that doesn't exist
src/dev/arm/rv_ctrl.cc:122: warn: Tried to read RealView I/O at offset 0x48 that doesn't exist
src/arch/arm/insts/pseudo.cc:174: warn: 	instruction 'bti' unimplemented
src/arch/arm/insts/pseudo.cc:174: warn: 	instruction 'bti' unimplemented
src/arch/arm/insts/pseudo.cc:174: warn: 	instruction 'bti' unimplemented
src/arch/arm/insts/pseudo.cc:174: warn: 	instruction 'bti' unimplemented
src/arch/arm/insts/pseudo.cc:174: warn: 	instruction 'csdb' unimplemented
src/arch/arm/insts/pseudo.cc:174: warn: 	instruction 'bti' unimplemented
src/arch/arm/insts/pseudo.cc:174: warn: 	instruction 'bti' unimplemented
src/arch/arm/insts/pseudo.cc:174: warn: 	instruction 'csdb' unimplemented
src/arch/arm/insts/pseudo.cc:174: warn: 	instruction 'bti' unimplemented
first exit event: kernel booted
2025-05-05-20-55-55
ps: 
success
    PID PSR COMMAND
 256473  23 gem5.opt

success
Name:	gem5.opt
Umask:	0022
State:	S (sleeping)
Tgid:	256473
Ngid:	0
Pid:	256473
PPid:	256471
TracerPid:	0
Uid:	1003	1003	1003	1003
Gid:	100	100	100	100
FDSize:	64
Groups:	10 100 979 
NStgid:	256473
NSpid:	256473
NSpgid:	254410
NSsid:	253425
VmPeak:	 3699880 kB
VmSize:	 3699880 kB
VmLck:	       0 kB
VmPin:	       0 kB
VmHWM:	  967848 kB
VmRSS:	  967848 kB
RssAnon:	  897768 kB
RssFile:	   70080 kB
RssShmem:	       0 kB
VmData:	 3194360 kB
VmStk:	     132 kB
VmExe:	   61316 kB
VmLib:	   13356 kB
VmPTE:	    2068 kB
VmSwap:	       0 kB
HugetlbPages:	       0 kB
CoreDumping:	0
THP_enabled:	1
untag_mask:	0xffffffffffffffff
Threads:	1
SigQ:	0/512669
SigPnd:	0000000000000000
ShdPnd:	0000000000000000
SigBlk:	0000000008000000
SigIgn:	0000000001001085
SigCgt:	0000000010000e22
CapInh:	0000000000000000
CapPrm:	0000000000000000
CapEff:	0000000000000000
CapBnd:	000001ffffffffff
CapAmb:	0000000000000000
NoNewPrivs:	0
Seccomp:	0
Seccomp_filters:	0
Speculation_Store_Bypass:	vulnerable
SpeculationIndirectBranch:	always enabled
Cpus_allowed:	00,3fe003fe
Cpus_allowed_list:	1-9,21-29
Mems_allowed:	00000000,00000000,00000000,00000000,00000000,00000000,00000000,00000000,00000000,00000000,00000000,00000000,00000000,00000000,00000000,00000000,00000000,00000000,00000000,00000000,00000000,00000000,00000000,00000000,00000000,00000000,00000000,00000000,00000000,00000000,00000000,00000003
Mems_allowed_list:	0-1
voluntary_ctxt_switches:	39073
nonvoluntary_ctxt_switches:	2535

src/sim/simulate.cc:199: info: Entering event queue @ 364674239721.  Starting simulation...
src/arch/arm/insts/pseudo.cc:174: warn: 	instruction 'bti' unimplemented
second exit event: in after boot
2025-05-05-21-34-00
ps: 
success
    PID PSR COMMAND
 256473  23 gem5.opt

success
Name:	gem5.opt
Umask:	0022
State:	S (sleeping)
Tgid:	256473
Ngid:	0
Pid:	256473
PPid:	256471
TracerPid:	0
Uid:	1003	1003	1003	1003
Gid:	100	100	100	100
FDSize:	64
Groups:	10 100 979 
NStgid:	256473
NSpid:	256473
NSpgid:	254410
NSsid:	253425
VmPeak:	 3857576 kB
VmSize:	 3857576 kB
VmLck:	       0 kB
VmPin:	       0 kB
VmHWM:	 1137616 kB
VmRSS:	 1137616 kB
RssAnon:	 1066896 kB
RssFile:	   70720 kB
RssShmem:	       0 kB
VmData:	 3352056 kB
VmStk:	     132 kB
VmExe:	   61316 kB
VmLib:	   13356 kB
VmPTE:	    2400 kB
VmSwap:	       0 kB
HugetlbPages:	       0 kB
CoreDumping:	0
THP_enabled:	1
untag_mask:	0xffffffffffffffff
Threads:	1
SigQ:	0/512669
SigPnd:	0000000000000000
ShdPnd:	0000000000000000
SigBlk:	0000000008000000
SigIgn:	0000000001001085
SigCgt:	0000000010000e22
CapInh:	0000000000000000
CapPrm:	0000000000000000
CapEff:	0000000000000000
CapBnd:	000001ffffffffff
CapAmb:	0000000000000000
NoNewPrivs:	0
Seccomp:	0
Seccomp_filters:	0
Speculation_Store_Bypass:	vulnerable
SpeculationIndirectBranch:	always enabled
Cpus_allowed:	00,3fe003fe
Cpus_allowed_list:	1-9,21-29
Mems_allowed:	00000000,00000000,00000000,00000000,00000000,00000000,00000000,00000000,00000000,00000000,00000000,00000000,00000000,00000000,00000000,00000000,00000000,00000000,00000000,00000000,00000000,00000000,00000000,00000000,00000000,00000000,00000000,00000000,00000000,00000000,00000000,00000003
Mems_allowed_list:	0-1
voluntary_ctxt_switches:	39085
nonvoluntary_ctxt_switches:	5572

src/sim/simulate.cc:199: info: Entering event queue @ 493063098012.  Starting simulation...
third exit event: after run script
2025-05-05-21-36-33
ps: 
success
    PID PSR COMMAND
 256473  23 gem5.opt

success
Name:	gem5.opt
Umask:	0022
State:	S (sleeping)
Tgid:	256473
Ngid:	0
Pid:	256473
PPid:	256471
TracerPid:	0
Uid:	1003	1003	1003	1003
Gid:	100	100	100	100
FDSize:	64
Groups:	10 100 979 
NStgid:	256473
NSpid:	256473
NSpgid:	254410
NSsid:	253425
VmPeak:	 3863720 kB
VmSize:	 3863720 kB
VmLck:	       0 kB
VmPin:	       0 kB
VmHWM:	 1144336 kB
VmRSS:	 1144336 kB
RssAnon:	 1073616 kB
RssFile:	   70720 kB
RssShmem:	       0 kB
VmData:	 3358200 kB
VmStk:	     132 kB
VmExe:	   61316 kB
VmLib:	   13356 kB
VmPTE:	    2412 kB
VmSwap:	       0 kB
HugetlbPages:	       0 kB
CoreDumping:	0
THP_enabled:	1
untag_mask:	0xffffffffffffffff
Threads:	1
SigQ:	0/512669
SigPnd:	0000000000000000
ShdPnd:	0000000000000000
SigBlk:	0000000008000000
SigIgn:	0000000001001085
SigCgt:	0000000010000e22
CapInh:	0000000000000000
CapPrm:	0000000000000000
CapEff:	0000000000000000
CapBnd:	000001ffffffffff
CapAmb:	0000000000000000
NoNewPrivs:	0
Seccomp:	0
Seccomp_filters:	0
Speculation_Store_Bypass:	vulnerable
SpeculationIndirectBranch:	always enabled
Cpus_allowed:	00,3fe003fe
Cpus_allowed_list:	1-9,21-29
Mems_allowed:	00000000,00000000,00000000,00000000,00000000,00000000,00000000,00000000,00000000,00000000,00000000,00000000,00000000,00000000,00000000,00000000,00000000,00000000,00000000,00000000,00000000,00000000,00000000,00000000,00000000,00000000,00000000,00000000,00000000,00000000,00000000,00000003
Mems_allowed_list:	0-1
voluntary_ctxt_switches:	39091
nonvoluntary_ctxt_switches:	5770


 Performance counter stats for '/home/mcallisl/gem5/build/ALL/gem5.opt /home/mcallisl/config_scripts/run_script.py --isa ARM --cpu O3 --mem 2GiB --cache 32KiB:256KiB --cores 4 --workload boot-exit':

18,521,319,427,637      INST_RETIRED.ANY                 #      6.0 %  tma_core_bound         
                                                  #      8.0 %  tma_memory_bound         (31.25%)
   389,403,410,499      RESOURCE_STALLS.SB                                                      (31.25%)
   450,901,025,993      CPU_CLK_UNHALTED.REF_XCLK                                               (31.25%)
30,144,561,527,649      IDQ_UOPS_NOT_DELIVERED.CORE                                             (31.25%)
 2,049,099,486,957      RS_EVENTS.EMPTY_CYCLES                                                  (31.25%)
   354,576,690,540      INT_MISC.RECOVERY_CYCLES_ANY                                            (25.00%)
 4,125,785,107,933      UOPS_EXECUTED.CYCLES_GE_3_UOPS_EXEC                                        (25.00%)
 9,564,295,990,558      UOPS_EXECUTED.CYCLES_GE_1_UOP_EXEC                                        (25.00%)
 6,783,572,035,828      UOPS_EXECUTED.CYCLES_GE_2_UOPS_EXEC                                        (25.00%)
   450,816,908,475      CPU_CLK_UNHALTED.ONE_THREAD_ACTIVE                                        (25.00%)
15,311,228,224,669      CPU_CLK_UNHALTED.THREAD                                                 (31.25%)
 3,541,922,649,104      CYCLE_ACTIVITY.STALLS_MEM_ANY                                           (31.25%)
18,962,444,080,085      UOPS_RETIRED.RETIRE_SLOTS                                               (31.25%)
 5,394,574,929,059      IDQ_UOPS_NOT_DELIVERED.CYCLES_0_UOPS_DELIV.CORE                                        (31.25%)
 5,749,365,901,095      CYCLE_ACTIVITY.STALLS_TOTAL                                             (31.25%)
21,791,648,095,869      UOPS_ISSUED.ANY                                                         (25.00%)

    4567.571484582 seconds time elapsed

    4491.111468000 seconds user
       3.052746000 seconds sys


