Global frequency set at 1000000000000 ticks per second
src/mem/dram_interface.cc:690: warn: DRAM device capacity (16384 Mbytes) does not match the address range assigned (1024 Mbytes)
src/mem/dram_interface.cc:690: warn: DRAM device capacity (16384 Mbytes) does not match the address range assigned (1024 Mbytes)
src/sim/kernel_workload.cc:46: info: kernel located at: /home/mcallisl/.cache/gem5/arm64-linux-kernel-5.4.49
src/base/loader/symtab.cc:95: warn: Cannot insert a new symbol table due to name collisions. Adding prefix to each symbol's name can resolve this issue.
src/base/statistics.hh:279: warn: One of the stats is a legacy stat. Legacy stat is a stat that does not belong to any statistics::Group. Legacy stat is deprecated.
src/base/statistics.hh:279: warn: One of the stats is a legacy stat. Legacy stat is a stat that does not belong to any statistics::Group. Legacy stat is deprecated.
src/base/vnc/vncserver.cc:163: warn: Sockets disabled, not accepting vnc client connections
src/dev/serial/terminal.cc:174: warn: Sockets disabled, not accepting terminal connections
src/base/remote_gdb.cc:418: warn: Sockets disabled, not accepting gdb connections
src/arch/arm/fs_workload.cc:121: info: Using bootloader at address 0x10
src/arch/arm/fs_workload.cc:139: info: Using kernel entry physical address at 0x80080000
src/arch/arm/linux/fs_workload.cc:111: info: Loading DTB file: m5out/device.dtb at address 0x88000000
src/dev/arm/energy_ctrl.cc:252: warn: Existing EnergyCtrl, but no enabled DVFSHandler found.
gem5 Simulator System.  https://www.gem5.org
gem5 is copyrighted software; use the --copyright option for details.

gem5 version 24.1.0.2
gem5 compiled Apr  8 2025 17:46:57
gem5 started May  5 2025 23:06:03
gem5 executing on turing301, pid 256699
command line: /home/mcallisl/gem5/build/ALL/gem5.opt /home/mcallisl/config_scripts/run_script.py --isa ARM --cpu O3 --mem 2GiB --cache 32KiB:256KiB --cores 4 --workload boot-exit

info: Standard input is not a terminal, disabling listeners.
test1
info: Using default config
src/sim/simulate.cc:199: info: Entering event queue @ 0.  Starting simulation...
src/mem/ruby/system/Sequencer.cc:704: warn: Replacement policy updates recently became the responsibility of SLICC state machines. Make sure to setMRU() near callbacks in .sm files!
src/dev/arm/gic_v3_distributor.cc:884: warn: Gicv3Distributor::write(): setting ARE_NS to 0 is not supported!
src/dev/arm/gic_v3_distributor.cc:889: warn: Gicv3Distributor::write(): setting ARE_S to 0 is not supported!
src/dev/arm/rv_ctrl.cc:176: warn: SCReg: Access to unknown device dcc0:site0:pos0:fn7:dev0
src/mem/ruby/system/RubyPort.cc:264: warn: Cache maintenance operations are not supported in Ruby.
src/dev/arm/gic_v3_distributor.cc:913: warn: Gicv3Distributor::write(): setting ARE_NS to 0 is not supported!
src/arch/arm/insts/pseudo.cc:174: warn: 	instruction 'csdb' unimplemented
src/dev/arm/rv_ctrl.cc:122: warn: Tried to read RealView I/O at offset 0x60 that doesn't exist
src/dev/arm/rv_ctrl.cc:122: warn: Tried to read RealView I/O at offset 0x48 that doesn't exist
src/dev/arm/rv_ctrl.cc:198: warn: Tried to write RVIO at offset 0xa8 (data 0) that doesn't exist
src/dev/arm/rv_ctrl.cc:198: warn: Tried to write RVIO at offset 0xa8 (data 0) that doesn't exist
src/dev/arm/rv_ctrl.cc:198: warn: Tried to write RVIO at offset 0xa8 (data 0) that doesn't exist
src/dev/arm/rv_ctrl.cc:198: warn: Tried to write RVIO at offset 0xa8 (data 0) that doesn't exist
src/dev/arm/rv_ctrl.cc:198: warn: Tried to write RVIO at offset 0xa8 (data 0) that doesn't exist
src/dev/arm/rv_ctrl.cc:198: warn: Tried to write RVIO at offset 0xa8 (data 0) that doesn't exist
src/dev/arm/rv_ctrl.cc:198: warn: Tried to write RVIO at offset 0xa8 (data 0) that doesn't exist
src/dev/arm/rv_ctrl.cc:198: warn: Tried to write RVIO at offset 0xa8 (data 0) that doesn't exist
src/dev/arm/rv_ctrl.cc:198: warn: Tried to write RVIO at offset 0xa8 (data 0) that doesn't exist
src/dev/arm/rv_ctrl.cc:198: warn: Tried to write RVIO at offset 0xa8 (data 0) that doesn't exist
src/arch/arm/insts/pseudo.cc:174: warn: 	instruction 'csdb' unimplemented
src/dev/arm/rv_ctrl.cc:122: warn: Tried to read RealView I/O at offset 0x8 that doesn't exist
src/dev/arm/rv_ctrl.cc:122: warn: Tried to read RealView I/O at offset 0x48 that doesn't exist
src/arch/arm/insts/pseudo.cc:174: warn: 	instruction 'bti' unimplemented
src/arch/arm/insts/pseudo.cc:174: warn: 	instruction 'bti' unimplemented
src/arch/arm/insts/pseudo.cc:174: warn: 	instruction 'bti' unimplemented
src/arch/arm/insts/pseudo.cc:174: warn: 	instruction 'bti' unimplemented
src/arch/arm/insts/pseudo.cc:174: warn: 	instruction 'csdb' unimplemented
src/arch/arm/insts/pseudo.cc:174: warn: 	instruction 'bti' unimplemented
src/arch/arm/insts/pseudo.cc:174: warn: 	instruction 'bti' unimplemented
src/arch/arm/insts/pseudo.cc:174: warn: 	instruction 'csdb' unimplemented
src/arch/arm/insts/pseudo.cc:174: warn: 	instruction 'bti' unimplemented
first exit event: kernel booted
2025-05-05-23-41-34
ps: 
success
    PID PSR COMMAND
 256699  33 gem5.opt

success
Name:	gem5.opt
Umask:	0022
State:	S (sleeping)
Tgid:	256699
Ngid:	0
Pid:	256699
PPid:	256698
TracerPid:	0
Uid:	1003	1003	1003	1003
Gid:	100	100	100	100
FDSize:	64
Groups:	10 100 979 
NStgid:	256699
NSpid:	256699
NSpgid:	254410
NSsid:	253425
VmPeak:	 3700140 kB
VmSize:	 3700140 kB
VmLck:	       0 kB
VmPin:	       0 kB
VmHWM:	  969664 kB
VmRSS:	  969664 kB
RssAnon:	  898624 kB
RssFile:	   71040 kB
RssShmem:	       0 kB
VmData:	 3194620 kB
VmStk:	     132 kB
VmExe:	   61316 kB
VmLib:	   13356 kB
VmPTE:	    2060 kB
VmSwap:	       0 kB
HugetlbPages:	       0 kB
CoreDumping:	0
THP_enabled:	1
untag_mask:	0xffffffffffffffff
Threads:	1
SigQ:	0/512669
SigPnd:	0000000000000000
ShdPnd:	0000000000000000
SigBlk:	0000000008000000
SigIgn:	0000000001001085
SigCgt:	0000000010000e22
CapInh:	0000000000000000
CapPrm:	0000000000000000
CapEff:	0000000000000000
CapBnd:	000001ffffffffff
CapAmb:	0000000000000000
NoNewPrivs:	0
Seccomp:	0
Seccomp_filters:	0
Speculation_Store_Bypass:	vulnerable
SpeculationIndirectBranch:	always enabled
Cpus_allowed:	ff,800ff800
Cpus_allowed_list:	11-19,31-39
Mems_allowed:	00000000,00000000,00000000,00000000,00000000,00000000,00000000,00000000,00000000,00000000,00000000,00000000,00000000,00000000,00000000,00000000,00000000,00000000,00000000,00000000,00000000,00000000,00000000,00000000,00000000,00000000,00000000,00000000,00000000,00000000,00000000,00000003
Mems_allowed_list:	0-1
voluntary_ctxt_switches:	1595
nonvoluntary_ctxt_switches:	2528

src/sim/simulate.cc:199: info: Entering event queue @ 364674239721.  Starting simulation...
src/arch/arm/insts/pseudo.cc:174: warn: 	instruction 'bti' unimplemented
second exit event: in after boot
2025-05-06-00-19-44
ps: 
success
    PID PSR COMMAND
 256699  33 gem5.opt

success
Name:	gem5.opt
Umask:	0022
State:	S (sleeping)
Tgid:	256699
Ngid:	0
Pid:	256699
PPid:	256698
TracerPid:	0
Uid:	1003	1003	1003	1003
Gid:	100	100	100	100
FDSize:	64
Groups:	10 100 979 
NStgid:	256699
NSpid:	256699
NSpgid:	254410
NSsid:	253425
VmPeak:	 3857836 kB
VmSize:	 3857836 kB
VmLck:	       0 kB
VmPin:	       0 kB
VmHWM:	 1138532 kB
VmRSS:	 1138532 kB
RssAnon:	 1066852 kB
RssFile:	   71680 kB
RssShmem:	       0 kB
VmData:	 3352316 kB
VmStk:	     132 kB
VmExe:	   61316 kB
VmLib:	   13356 kB
VmPTE:	    2388 kB
VmSwap:	       0 kB
HugetlbPages:	       0 kB
CoreDumping:	0
THP_enabled:	1
untag_mask:	0xffffffffffffffff
Threads:	1
SigQ:	0/512669
SigPnd:	0000000000000000
ShdPnd:	0000000000000000
SigBlk:	0000000008000000
SigIgn:	0000000001001085
SigCgt:	0000000010000e22
CapInh:	0000000000000000
CapPrm:	0000000000000000
CapEff:	0000000000000000
CapBnd:	000001ffffffffff
CapAmb:	0000000000000000
NoNewPrivs:	0
Seccomp:	0
Seccomp_filters:	0
Speculation_Store_Bypass:	vulnerable
SpeculationIndirectBranch:	always enabled
Cpus_allowed:	ff,800ff800
Cpus_allowed_list:	11-19,31-39
Mems_allowed:	00000000,00000000,00000000,00000000,00000000,00000000,00000000,00000000,00000000,00000000,00000000,00000000,00000000,00000000,00000000,00000000,00000000,00000000,00000000,00000000,00000000,00000000,00000000,00000000,00000000,00000000,00000000,00000000,00000000,00000000,00000000,00000003
Mems_allowed_list:	0-1
voluntary_ctxt_switches:	1607
nonvoluntary_ctxt_switches:	5584

src/sim/simulate.cc:199: info: Entering event queue @ 493063098012.  Starting simulation...
third exit event: after run script
2025-05-06-00-22-18
ps: 
success
    PID PSR COMMAND
 256699  33 gem5.opt

success
Name:	gem5.opt
Umask:	0022
State:	S (sleeping)
Tgid:	256699
Ngid:	0
Pid:	256699
PPid:	256698
TracerPid:	0
Uid:	1003	1003	1003	1003
Gid:	100	100	100	100
FDSize:	64
Groups:	10 100 979 
NStgid:	256699
NSpid:	256699
NSpgid:	254410
NSsid:	253425
VmPeak:	 3863980 kB
VmSize:	 3863980 kB
VmLck:	       0 kB
VmPin:	       0 kB
VmHWM:	 1145252 kB
VmRSS:	 1145252 kB
RssAnon:	 1073572 kB
RssFile:	   71680 kB
RssShmem:	       0 kB
VmData:	 3358460 kB
VmStk:	     132 kB
VmExe:	   61316 kB
VmLib:	   13356 kB
VmPTE:	    2400 kB
VmSwap:	       0 kB
HugetlbPages:	       0 kB
CoreDumping:	0
THP_enabled:	1
untag_mask:	0xffffffffffffffff
Threads:	1
SigQ:	0/512669
SigPnd:	0000000000000000
ShdPnd:	0000000000000000
SigBlk:	0000000008000000
SigIgn:	0000000001001085
SigCgt:	0000000010000e22
CapInh:	0000000000000000
CapPrm:	0000000000000000
CapEff:	0000000000000000
CapBnd:	000001ffffffffff
CapAmb:	0000000000000000
NoNewPrivs:	0
Seccomp:	0
Seccomp_filters:	0
Speculation_Store_Bypass:	vulnerable
SpeculationIndirectBranch:	always enabled
Cpus_allowed:	ff,800ff800
Cpus_allowed_list:	11-19,31-39
Mems_allowed:	00000000,00000000,00000000,00000000,00000000,00000000,00000000,00000000,00000000,00000000,00000000,00000000,00000000,00000000,00000000,00000000,00000000,00000000,00000000,00000000,00000000,00000000,00000000,00000000,00000000,00000000,00000000,00000000,00000000,00000000,00000000,00000003
Mems_allowed_list:	0-1
voluntary_ctxt_switches:	1613
nonvoluntary_ctxt_switches:	5779


 Performance counter stats for '/home/mcallisl/gem5/build/ALL/gem5.opt /home/mcallisl/config_scripts/run_script.py --isa ARM --cpu O3 --mem 2GiB --cache 32KiB:256KiB --cores 4 --workload boot-exit':

   450,662,627,554      CPU_CLK_UNHALTED.REF_XCLK        #      6.9 %  tma_itlb_misses          (12.50%)
30,310,968,172,804      IDQ_UOPS_NOT_DELIVERED.CORE                                             (12.50%)
    32,789,107,087      cpu/ITLB_MISSES.WALK_DURATION,cmask=1/                                        (12.50%)
   450,618,540,538      CPU_CLK_UNHALTED.ONE_THREAD_ACTIVE                                        (10.00%)
    72,826,565,794      ITLB_MISSES.STLB_HIT                                                    (10.00%)
15,311,369,928,520      CPU_CLK_UNHALTED.THREAD                                                 (12.50%)
       496,322,913      ITLB_MISSES.WALK_COMPLETED                                              (12.50%)
 5,426,142,267,314      IDQ_UOPS_NOT_DELIVERED.CYCLES_0_UOPS_DELIV.CORE                                        (12.50%)
   450,610,012,655      CPU_CLK_UNHALTED.REF_XCLK        #     11.9 %  tma_branch_resteers      (12.50%)
30,305,492,594,160      IDQ_UOPS_NOT_DELIVERED.CORE                                             (12.50%)
    88,320,475,352      BACLEARS.ANY                                                            (10.00%)
    61,834,271,284      BR_MISP_RETIRED.ALL_BRANCHES                                            (10.00%)
   450,631,724,176      CPU_CLK_UNHALTED.ONE_THREAD_ACTIVE                                        (10.00%)
15,317,876,161,667      CPU_CLK_UNHALTED.THREAD                                                 (12.50%)
 5,430,050,922,534      IDQ_UOPS_NOT_DELIVERED.CYCLES_0_UOPS_DELIV.CORE                                        (12.50%)
     1,588,477,916      MACHINE_CLEARS.COUNT                                                    (12.50%)
   450,651,190,516      CPU_CLK_UNHALTED.REF_XCLK        #      1.5 %  tma_ms_switches          (12.50%)
30,312,432,323,078      IDQ_UOPS_NOT_DELIVERED.CORE                                             (12.50%)
   450,533,180,645      CPU_CLK_UNHALTED.ONE_THREAD_ACTIVE                                        (10.00%)
15,314,167,965,728      CPU_CLK_UNHALTED.THREAD                                                 (12.50%)
 5,427,309,069,621      IDQ_UOPS_NOT_DELIVERED.CYCLES_0_UOPS_DELIV.CORE                                        (12.50%)
   114,485,054,418      IDQ.MS_SWITCHES                                                         (12.50%)
    16,408,623,592      ILD_STALL.LCP                    #      0.1 %  tma_lcp                  (12.50%)
   450,476,172,881      CPU_CLK_UNHALTED.REF_XCLK                                               (12.50%)
30,286,740,783,635      IDQ_UOPS_NOT_DELIVERED.CORE                                             (10.00%)
   450,366,233,371      CPU_CLK_UNHALTED.ONE_THREAD_ACTIVE                                        (10.00%)
15,310,086,688,548      CPU_CLK_UNHALTED.THREAD                                                 (12.50%)
 5,426,931,007,143      IDQ_UOPS_NOT_DELIVERED.CYCLES_0_UOPS_DELIV.CORE                                        (12.50%)
   450,645,535,928      CPU_CLK_UNHALTED.REF_XCLK        #     18.8 %  tma_icache_misses        (12.50%)
30,309,512,543,678      IDQ_UOPS_NOT_DELIVERED.CORE                                             (12.50%)
 2,877,049,436,035      ICACHE.IFDATA_STALL                                                     (12.50%)
   450,625,363,671      CPU_CLK_UNHALTED.ONE_THREAD_ACTIVE                                        (10.00%)
15,318,052,636,334      CPU_CLK_UNHALTED.THREAD                                                 (12.50%)
 5,429,278,462,204      IDQ_UOPS_NOT_DELIVERED.CYCLES_0_UOPS_DELIV.CORE                                        (12.50%)
   284,117,210,649      DSB2MITE_SWITCHES.PENALTY_CYCLES #      1.9 %  tma_dsb_switches         (12.50%)
   450,688,619,650      CPU_CLK_UNHALTED.REF_XCLK                                               (12.50%)
30,316,410,442,156      IDQ_UOPS_NOT_DELIVERED.CORE                                             (12.50%)
   450,607,513,343      CPU_CLK_UNHALTED.ONE_THREAD_ACTIVE                                        (10.00%)
15,317,132,601,379      CPU_CLK_UNHALTED.THREAD                                                 (12.50%)
 5,427,993,515,202      IDQ_UOPS_NOT_DELIVERED.CYCLES_0_UOPS_DELIV.CORE                                        (12.50%)

    4578.328485606 seconds time elapsed

    4486.819021000 seconds user
       2.085376000 seconds sys


