Global frequency set at 1000000000000 ticks per second
src/mem/dram_interface.cc:690: warn: DRAM device capacity (16384 Mbytes) does not match the address range assigned (1024 Mbytes)
src/mem/dram_interface.cc:690: warn: DRAM device capacity (16384 Mbytes) does not match the address range assigned (1024 Mbytes)
src/sim/kernel_workload.cc:46: info: kernel located at: /home/mcallisl/.cache/gem5/arm64-linux-kernel-5.4.49
src/base/loader/symtab.cc:95: warn: Cannot insert a new symbol table due to name collisions. Adding prefix to each symbol's name can resolve this issue.
src/base/statistics.hh:279: warn: One of the stats is a legacy stat. Legacy stat is a stat that does not belong to any statistics::Group. Legacy stat is deprecated.
src/base/statistics.hh:279: warn: One of the stats is a legacy stat. Legacy stat is a stat that does not belong to any statistics::Group. Legacy stat is deprecated.
src/base/vnc/vncserver.cc:163: warn: Sockets disabled, not accepting vnc client connections
src/dev/serial/terminal.cc:174: warn: Sockets disabled, not accepting terminal connections
src/base/remote_gdb.cc:418: warn: Sockets disabled, not accepting gdb connections
src/arch/arm/fs_workload.cc:121: info: Using bootloader at address 0x10
src/arch/arm/fs_workload.cc:139: info: Using kernel entry physical address at 0x80080000
src/arch/arm/linux/fs_workload.cc:111: info: Loading DTB file: m5out/device.dtb at address 0x88000000
src/dev/arm/energy_ctrl.cc:252: warn: Existing EnergyCtrl, but no enabled DVFSHandler found.
gem5 Simulator System.  https://www.gem5.org
gem5 is copyrighted software; use the --copyright option for details.

gem5 version 24.1.0.2
gem5 compiled Apr  8 2025 17:46:57
gem5 started May  5 2025 23:06:03
gem5 executing on turing301, pid 256700
command line: /home/mcallisl/gem5/build/ALL/gem5.opt /home/mcallisl/config_scripts/run_script.py --isa ARM --cpu O3 --mem 2GiB --cache 32KiB:256KiB --cores 4 --workload boot-exit

info: Standard input is not a terminal, disabling listeners.
test1
info: Using default config
src/sim/simulate.cc:199: info: Entering event queue @ 0.  Starting simulation...
src/mem/ruby/system/Sequencer.cc:704: warn: Replacement policy updates recently became the responsibility of SLICC state machines. Make sure to setMRU() near callbacks in .sm files!
src/dev/arm/gic_v3_distributor.cc:884: warn: Gicv3Distributor::write(): setting ARE_NS to 0 is not supported!
src/dev/arm/gic_v3_distributor.cc:889: warn: Gicv3Distributor::write(): setting ARE_S to 0 is not supported!
src/dev/arm/rv_ctrl.cc:176: warn: SCReg: Access to unknown device dcc0:site0:pos0:fn7:dev0
src/mem/ruby/system/RubyPort.cc:264: warn: Cache maintenance operations are not supported in Ruby.
src/dev/arm/gic_v3_distributor.cc:913: warn: Gicv3Distributor::write(): setting ARE_NS to 0 is not supported!
src/arch/arm/insts/pseudo.cc:174: warn: 	instruction 'csdb' unimplemented
src/dev/arm/rv_ctrl.cc:122: warn: Tried to read RealView I/O at offset 0x60 that doesn't exist
src/dev/arm/rv_ctrl.cc:122: warn: Tried to read RealView I/O at offset 0x48 that doesn't exist
src/dev/arm/rv_ctrl.cc:198: warn: Tried to write RVIO at offset 0xa8 (data 0) that doesn't exist
src/dev/arm/rv_ctrl.cc:198: warn: Tried to write RVIO at offset 0xa8 (data 0) that doesn't exist
src/dev/arm/rv_ctrl.cc:198: warn: Tried to write RVIO at offset 0xa8 (data 0) that doesn't exist
src/dev/arm/rv_ctrl.cc:198: warn: Tried to write RVIO at offset 0xa8 (data 0) that doesn't exist
src/dev/arm/rv_ctrl.cc:198: warn: Tried to write RVIO at offset 0xa8 (data 0) that doesn't exist
src/dev/arm/rv_ctrl.cc:198: warn: Tried to write RVIO at offset 0xa8 (data 0) that doesn't exist
src/dev/arm/rv_ctrl.cc:198: warn: Tried to write RVIO at offset 0xa8 (data 0) that doesn't exist
src/dev/arm/rv_ctrl.cc:198: warn: Tried to write RVIO at offset 0xa8 (data 0) that doesn't exist
src/dev/arm/rv_ctrl.cc:198: warn: Tried to write RVIO at offset 0xa8 (data 0) that doesn't exist
src/dev/arm/rv_ctrl.cc:198: warn: Tried to write RVIO at offset 0xa8 (data 0) that doesn't exist
src/arch/arm/insts/pseudo.cc:174: warn: 	instruction 'csdb' unimplemented
src/dev/arm/rv_ctrl.cc:122: warn: Tried to read RealView I/O at offset 0x8 that doesn't exist
src/dev/arm/rv_ctrl.cc:122: warn: Tried to read RealView I/O at offset 0x48 that doesn't exist
src/arch/arm/insts/pseudo.cc:174: warn: 	instruction 'bti' unimplemented
src/arch/arm/insts/pseudo.cc:174: warn: 	instruction 'bti' unimplemented
src/arch/arm/insts/pseudo.cc:174: warn: 	instruction 'bti' unimplemented
src/arch/arm/insts/pseudo.cc:174: warn: 	instruction 'bti' unimplemented
src/arch/arm/insts/pseudo.cc:174: warn: 	instruction 'csdb' unimplemented
src/arch/arm/insts/pseudo.cc:174: warn: 	instruction 'bti' unimplemented
src/arch/arm/insts/pseudo.cc:174: warn: 	instruction 'bti' unimplemented
src/arch/arm/insts/pseudo.cc:174: warn: 	instruction 'csdb' unimplemented
src/arch/arm/insts/pseudo.cc:174: warn: 	instruction 'bti' unimplemented
first exit event: kernel booted
2025-05-05-23-42-33
ps: 
success
    PID PSR COMMAND
 256700   2 gem5.opt

success
Name:	gem5.opt
Umask:	0022
State:	S (sleeping)
Tgid:	256700
Ngid:	0
Pid:	256700
PPid:	256697
TracerPid:	0
Uid:	1003	1003	1003	1003
Gid:	100	100	100	100
FDSize:	64
Groups:	10 100 979 
NStgid:	256700
NSpid:	256700
NSpgid:	254410
NSsid:	253425
VmPeak:	 3699884 kB
VmSize:	 3699884 kB
VmLck:	       0 kB
VmPin:	       0 kB
VmHWM:	  968032 kB
VmRSS:	  968032 kB
RssAnon:	  897312 kB
RssFile:	   70720 kB
RssShmem:	       0 kB
VmData:	 3194364 kB
VmStk:	     132 kB
VmExe:	   61316 kB
VmLib:	   13356 kB
VmPTE:	    2068 kB
VmSwap:	       0 kB
HugetlbPages:	       0 kB
CoreDumping:	0
THP_enabled:	1
untag_mask:	0xffffffffffffffff
Threads:	1
SigQ:	0/512669
SigPnd:	0000000000000000
ShdPnd:	0000000000000000
SigBlk:	0000000008000000
SigIgn:	0000000001001085
SigCgt:	0000000010000e22
CapInh:	0000000000000000
CapPrm:	0000000000000000
CapEff:	0000000000000000
CapBnd:	000001ffffffffff
CapAmb:	0000000000000000
NoNewPrivs:	0
Seccomp:	0
Seccomp_filters:	0
Speculation_Store_Bypass:	vulnerable
SpeculationIndirectBranch:	always enabled
Cpus_allowed:	00,3fe003fe
Cpus_allowed_list:	1-9,21-29
Mems_allowed:	00000000,00000000,00000000,00000000,00000000,00000000,00000000,00000000,00000000,00000000,00000000,00000000,00000000,00000000,00000000,00000000,00000000,00000000,00000000,00000000,00000000,00000000,00000000,00000000,00000000,00000000,00000000,00000000,00000000,00000000,00000000,00000003
Mems_allowed_list:	0-1
voluntary_ctxt_switches:	39037
nonvoluntary_ctxt_switches:	2615

src/sim/simulate.cc:199: info: Entering event queue @ 364674239721.  Starting simulation...
src/arch/arm/insts/pseudo.cc:174: warn: 	instruction 'bti' unimplemented
second exit event: in after boot
2025-05-06-00-20-30
ps: 
success
    PID PSR COMMAND
 256700   2 gem5.opt

success
Name:	gem5.opt
Umask:	0022
State:	S (sleeping)
Tgid:	256700
Ngid:	0
Pid:	256700
PPid:	256697
TracerPid:	0
Uid:	1003	1003	1003	1003
Gid:	100	100	100	100
FDSize:	64
Groups:	10 100 979 
NStgid:	256700
NSpid:	256700
NSpgid:	254410
NSsid:	253425
VmPeak:	 3857580 kB
VmSize:	 3857580 kB
VmLck:	       0 kB
VmPin:	       0 kB
VmHWM:	 1139772 kB
VmRSS:	 1139772 kB
RssAnon:	 1068412 kB
RssFile:	   71360 kB
RssShmem:	       0 kB
VmData:	 3352060 kB
VmStk:	     132 kB
VmExe:	   61316 kB
VmLib:	   13356 kB
VmPTE:	    2396 kB
VmSwap:	       0 kB
HugetlbPages:	       0 kB
CoreDumping:	0
THP_enabled:	1
untag_mask:	0xffffffffffffffff
Threads:	1
SigQ:	0/512669
SigPnd:	0000000000000000
ShdPnd:	0000000000000000
SigBlk:	0000000008000000
SigIgn:	0000000001001085
SigCgt:	0000000010000e22
CapInh:	0000000000000000
CapPrm:	0000000000000000
CapEff:	0000000000000000
CapBnd:	000001ffffffffff
CapAmb:	0000000000000000
NoNewPrivs:	0
Seccomp:	0
Seccomp_filters:	0
Speculation_Store_Bypass:	vulnerable
SpeculationIndirectBranch:	always enabled
Cpus_allowed:	00,3fe003fe
Cpus_allowed_list:	1-9,21-29
Mems_allowed:	00000000,00000000,00000000,00000000,00000000,00000000,00000000,00000000,00000000,00000000,00000000,00000000,00000000,00000000,00000000,00000000,00000000,00000000,00000000,00000000,00000000,00000000,00000000,00000000,00000000,00000000,00000000,00000000,00000000,00000000,00000000,00000003
Mems_allowed_list:	0-1
voluntary_ctxt_switches:	39109
nonvoluntary_ctxt_switches:	5632

src/sim/simulate.cc:199: info: Entering event queue @ 493063098012.  Starting simulation...
third exit event: after run script
2025-05-06-00-23-03
ps: 
success
    PID PSR COMMAND
 256700   2 gem5.opt

success
Name:	gem5.opt
Umask:	0022
State:	S (sleeping)
Tgid:	256700
Ngid:	0
Pid:	256700
PPid:	256697
TracerPid:	0
Uid:	1003	1003	1003	1003
Gid:	100	100	100	100
FDSize:	64
Groups:	10 100 979 
NStgid:	256700
NSpid:	256700
NSpgid:	254410
NSsid:	253425
VmPeak:	 3863724 kB
VmSize:	 3863724 kB
VmLck:	       0 kB
VmPin:	       0 kB
VmHWM:	 1146172 kB
VmRSS:	 1146172 kB
RssAnon:	 1074492 kB
RssFile:	   71680 kB
RssShmem:	       0 kB
VmData:	 3358204 kB
VmStk:	     132 kB
VmExe:	   61316 kB
VmLib:	   13356 kB
VmPTE:	    2408 kB
VmSwap:	       0 kB
HugetlbPages:	       0 kB
CoreDumping:	0
THP_enabled:	1
untag_mask:	0xffffffffffffffff
Threads:	1
SigQ:	1/512669
SigPnd:	0000000000000000
ShdPnd:	0000000000000000
SigBlk:	0000000008000000
SigIgn:	0000000001001085
SigCgt:	0000000010000e22
CapInh:	0000000000000000
CapPrm:	0000000000000000
CapEff:	0000000000000000
CapBnd:	000001ffffffffff
CapAmb:	0000000000000000
NoNewPrivs:	0
Seccomp:	0
Seccomp_filters:	0
Speculation_Store_Bypass:	vulnerable
SpeculationIndirectBranch:	always enabled
Cpus_allowed:	00,3fe003fe
Cpus_allowed_list:	1-9,21-29
Mems_allowed:	00000000,00000000,00000000,00000000,00000000,00000000,00000000,00000000,00000000,00000000,00000000,00000000,00000000,00000000,00000000,00000000,00000000,00000000,00000000,00000000,00000000,00000000,00000000,00000000,00000000,00000000,00000000,00000000,00000000,00000000,00000000,00000003
Mems_allowed_list:	0-1
voluntary_ctxt_switches:	39114
nonvoluntary_ctxt_switches:	5828


 Performance counter stats for '/home/mcallisl/gem5/build/ALL/gem5.opt /home/mcallisl/config_scripts/run_script.py --isa ARM --cpu O3 --mem 2GiB --cache 32KiB:256KiB --cores 4 --workload boot-exit':

   455,980,613,559      CPU_CLK_UNHALTED.REF_XCLK        #      7.0 %  tma_itlb_misses          (12.50%)
30,376,701,451,014      IDQ_UOPS_NOT_DELIVERED.CORE                                             (12.50%)
    68,182,423,971      cpu/ITLB_MISSES.WALK_DURATION,cmask=1/                                        (12.50%)
   456,061,293,748      CPU_CLK_UNHALTED.ONE_THREAD_ACTIVE                                        (10.00%)
    71,840,729,643      ITLB_MISSES.STLB_HIT                                                    (10.00%)
15,492,816,932,921      CPU_CLK_UNHALTED.THREAD                                                 (12.50%)
     1,144,682,933      ITLB_MISSES.WALK_COMPLETED                                              (12.50%)
 5,454,077,889,066      IDQ_UOPS_NOT_DELIVERED.CYCLES_0_UOPS_DELIV.CORE                                        (12.50%)
   456,051,395,973      CPU_CLK_UNHALTED.REF_XCLK        #     12.0 %  tma_branch_resteers      (12.50%)
30,380,610,434,385      IDQ_UOPS_NOT_DELIVERED.CORE                                             (12.50%)
    91,799,311,407      BACLEARS.ANY                                                            (10.00%)
    61,320,879,790      BR_MISP_RETIRED.ALL_BRANCHES                                            (10.00%)
   456,082,338,869      CPU_CLK_UNHALTED.ONE_THREAD_ACTIVE                                        (10.00%)
15,491,085,336,525      CPU_CLK_UNHALTED.THREAD                                                 (12.50%)
 5,452,611,989,937      IDQ_UOPS_NOT_DELIVERED.CYCLES_0_UOPS_DELIV.CORE                                        (12.50%)
     1,628,112,759      MACHINE_CLEARS.COUNT                                                    (12.50%)
   455,894,516,785      CPU_CLK_UNHALTED.REF_XCLK        #      1.5 %  tma_ms_switches          (12.50%)
30,369,513,886,385      IDQ_UOPS_NOT_DELIVERED.CORE                                             (12.50%)
   455,955,396,610      CPU_CLK_UNHALTED.ONE_THREAD_ACTIVE                                        (10.00%)
15,487,425,424,319      CPU_CLK_UNHALTED.THREAD                                                 (12.50%)
 5,453,678,602,299      IDQ_UOPS_NOT_DELIVERED.CYCLES_0_UOPS_DELIV.CORE                                        (12.50%)
   115,474,075,586      IDQ.MS_SWITCHES                                                         (12.50%)
    16,406,768,209      ILD_STALL.LCP                    #      0.1 %  tma_lcp                  (12.50%)
   456,080,023,936      CPU_CLK_UNHALTED.REF_XCLK                                               (12.50%)
30,372,418,653,417      IDQ_UOPS_NOT_DELIVERED.CORE                                             (10.00%)
   455,721,078,215      CPU_CLK_UNHALTED.ONE_THREAD_ACTIVE                                        (10.00%)
15,475,250,335,585      CPU_CLK_UNHALTED.THREAD                                                 (12.50%)
 5,450,207,284,394      IDQ_UOPS_NOT_DELIVERED.CYCLES_0_UOPS_DELIV.CORE                                        (12.50%)
   455,883,587,624      CPU_CLK_UNHALTED.REF_XCLK        #     18.4 %  tma_icache_misses        (12.50%)
30,378,109,006,842      IDQ_UOPS_NOT_DELIVERED.CORE                                             (12.50%)
 2,841,661,842,212      ICACHE.IFDATA_STALL                                                     (12.50%)
   455,776,818,122      CPU_CLK_UNHALTED.ONE_THREAD_ACTIVE                                        (10.00%)
15,472,973,706,471      CPU_CLK_UNHALTED.THREAD                                                 (12.50%)
 5,447,867,297,689      IDQ_UOPS_NOT_DELIVERED.CYCLES_0_UOPS_DELIV.CORE                                        (12.50%)
   283,929,895,452      DSB2MITE_SWITCHES.PENALTY_CYCLES #      1.8 %  tma_dsb_switches         (12.50%)
   455,865,278,058      CPU_CLK_UNHALTED.REF_XCLK                                               (12.50%)
30,384,293,712,835      IDQ_UOPS_NOT_DELIVERED.CORE                                             (12.50%)
   456,090,675,043      CPU_CLK_UNHALTED.ONE_THREAD_ACTIVE                                        (10.00%)
15,486,279,738,390      CPU_CLK_UNHALTED.THREAD                                                 (12.50%)
 5,452,679,376,143      IDQ_UOPS_NOT_DELIVERED.CYCLES_0_UOPS_DELIV.CORE                                        (12.50%)

    4622.823507291 seconds time elapsed

    4540.764131000 seconds user
       3.072671000 seconds sys


